<?xml version="1.0" encoding="UTF-8"?>

<!-- generated on 09/07/20 14:45:08 by Eclipse SUMO netedit Version 1.6.0
<configuration xmlns:xsi="http://www.w3.org/2001/XMLSchema-instance" xsi:noNamespaceSchemaLocation="http://sumo.dlr.de/xsd/netconvertConfiguration.xsd">

    <input>
        <sumo-net-file value="E:\Git\papers\ITSC2020\ieeeconf\MILP%20at%20intersection%20multi%20lane\data\cross.net.xml"/>
    </input>

    <output>
        <output-file value="E:\Git\papers\ITSC2020\ieeeconf\MILP%20at%20intersection%20multi%20lane\data\cross.net.xml"/>
    </output>

    <processing>
        <geometry.min-radius.fix.railways value="false"/>
        <geometry.max-grade.fix value="false"/>
        <offset.disable-normalization value="true"/>
        <lefthand value="false"/>
    </processing>

    <junctions>
        <no-turnarounds value="true"/>
        <junctions.corner-detail value="5"/>
        <junctions.limit-turn-speed value="5.5"/>
        <rectangular-lane-cut value="false"/>
    </junctions>

    <pedestrian>
        <walkingareas value="false"/>
    </pedestrian>

    <report>
        <aggregate-warnings value="5"/>
    </report>

</configuration>
-->

<net version="1.6" junctionCornerDetail="5" limitTurnSpeed="5.50" xmlns:xsi="http://www.w3.org/2001/XMLSchema-instance" xsi:noNamespaceSchemaLocation="http://sumo.dlr.de/xsd/net_file.xsd">

    <location netOffset="500.00,500.00" convBoundary="-200.00,-200.00,1200.00,1200.00" origBoundary="-510.00,-510.00,510.00,510.00" projParameter="!"/>

    <edge id=":0_0" function="internal">
        <lane id=":0_0_0" index="0" speed="6.79" length="9.68" width="4.00" shape="490.00,516.00 489.63,513.38 488.50,511.50 486.63,510.38 484.00,510.00"/>
    </edge>
    <edge id=":0_1" function="internal">
        <lane id=":0_1_0" index="0" speed="10.00" length="32.00" width="4.00" shape="494.00,516.00 494.00,484.00"/>
    </edge>
    <edge id=":0_2" function="internal">
        <lane id=":0_2_0" index="0" speed="11.29" length="29.03" width="4.00" shape="498.00,516.00 499.13,508.13 502.50,502.50 508.13,499.13 516.00,498.00"/>
    </edge>
    <edge id=":0_3" function="internal">
        <lane id=":0_3_0" index="0" speed="6.79" length="9.68" width="4.00" shape="516.00,510.00 513.38,510.38 511.50,511.50 510.38,513.38 510.00,516.00"/>
    </edge>
    <edge id=":0_4" function="internal">
        <lane id=":0_4_0" index="0" speed="10.00" length="32.00" width="4.00" shape="516.00,506.00 484.00,506.00"/>
    </edge>
    <edge id=":0_5" function="internal">
        <lane id=":0_5_0" index="0" speed="11.29" length="29.03" width="4.00" shape="516.00,502.00 508.13,500.88 502.50,497.50 499.13,491.88 498.00,484.00"/>
    </edge>
    <edge id=":0_6" function="internal">
        <lane id=":0_6_0" index="0" speed="6.79" length="9.68" width="4.00" shape="510.00,484.00 510.38,486.63 511.50,488.50 513.38,489.63 516.00,490.00"/>
    </edge>
    <edge id=":0_7" function="internal">
        <lane id=":0_7_0" index="0" speed="10.00" length="32.00" width="4.00" shape="506.00,484.00 506.00,516.00"/>
    </edge>
    <edge id=":0_8" function="internal">
        <lane id=":0_8_0" index="0" speed="11.29" length="29.03" width="4.00" shape="502.00,484.00 500.88,491.88 497.50,497.50 491.88,500.88 484.00,502.00"/>
    </edge>
    <edge id=":0_9" function="internal">
        <lane id=":0_9_0" index="0" speed="6.79" length="9.68" width="4.00" shape="484.00,490.00 486.63,489.63 488.50,488.50 489.63,486.63 490.00,484.00"/>
    </edge>
    <edge id=":0_10" function="internal">
        <lane id=":0_10_0" index="0" speed="10.00" length="32.00" width="4.00" shape="484.00,494.00 516.00,494.00"/>
    </edge>
    <edge id=":0_11" function="internal">
        <lane id=":0_11_0" index="0" speed="11.29" length="29.03" width="4.00" shape="484.00,498.00 491.88,499.13 497.50,502.50 500.88,508.13 502.00,516.00"/>
    </edge>
    <edge id=":1_0" function="internal">
        <lane id=":1_0_0" index="0" speed="4.08" length="5.84" width="4.00" shape="-200.00,502.00 -201.50,501.00 -202.00,500.00 -201.50,499.00 -200.00,498.00"/>
    </edge>
    <edge id=":2_0" function="internal">
        <lane id=":2_0_0" index="0" speed="4.08" length="5.84" width="4.00" shape="1200.00,498.00 1201.50,499.00 1202.00,500.00 1201.50,501.00 1200.00,502.00"/>
    </edge>
    <edge id=":3_0" function="internal">
        <lane id=":3_0_0" index="0" speed="4.08" length="5.84" width="4.00" shape="498.00,-200.00 499.00,-201.50 500.00,-202.00 501.00,-201.50 502.00,-200.00"/>
    </edge>
    <edge id=":4_0" function="internal">
        <lane id=":4_0_0" index="0" speed="4.08" length="5.84" width="4.00" shape="502.00,1200.00 501.00,1201.50 500.00,1202.00 499.00,1201.50 498.00,1200.00"/>
    </edge>

    <edge id="1i" from="1" to="0" priority="46" length="700.00">
        <lane id="1i_0" index="0" speed="10.00" length="700.00" width="4.00" shape="-200.00,490.00 484.00,490.00"/>
        <lane id="1i_1" index="1" speed="10.00" length="700.00" width="4.00" shape="-200.00,494.00 484.00,494.00"/>
        <lane id="1i_2" index="2" speed="10.00" length="700.00" width="4.00" shape="-200.00,498.00 484.00,498.00"/>
    </edge>
    <edge id="1o" from="0" to="1" priority="46" length="700.00">
        <lane id="1o_0" index="0" speed="10.00" length="700.00" width="4.00" shape="484.00,510.00 -200.00,510.00"/>
        <lane id="1o_1" index="1" speed="10.00" length="700.00" width="4.00" shape="484.00,506.00 -200.00,506.00"/>
        <lane id="1o_2" index="2" speed="10.00" length="700.00" width="4.00" shape="484.00,502.00 -200.00,502.00"/>
    </edge>
    <edge id="2i" from="2" to="0" priority="46" length="700.00">
        <lane id="2i_0" index="0" speed="10.00" length="700.00" width="4.00" shape="1200.00,510.00 516.00,510.00"/>
        <lane id="2i_1" index="1" speed="10.00" length="700.00" width="4.00" shape="1200.00,506.00 516.00,506.00"/>
        <lane id="2i_2" index="2" speed="10.00" length="700.00" width="4.00" shape="1200.00,502.00 516.00,502.00"/>
    </edge>
    <edge id="2o" from="0" to="2" priority="46" length="700.00">
        <lane id="2o_0" index="0" speed="10.00" length="700.00" width="4.00" shape="516.00,490.00 1200.00,490.00"/>
        <lane id="2o_1" index="1" speed="10.00" length="700.00" width="4.00" shape="516.00,494.00 1200.00,494.00"/>
        <lane id="2o_2" index="2" speed="10.00" length="700.00" width="4.00" shape="516.00,498.00 1200.00,498.00"/>
    </edge>
    <edge id="3i" from="3" to="0" priority="46" length="700.00">
        <lane id="3i_0" index="0" speed="10.00" length="700.00" width="4.00" shape="510.00,-200.00 510.00,484.00"/>
        <lane id="3i_1" index="1" speed="10.00" length="700.00" width="4.00" shape="506.00,-200.00 506.00,484.00"/>
        <lane id="3i_2" index="2" speed="10.00" length="700.00" width="4.00" shape="502.00,-200.00 502.00,484.00"/>
    </edge>
    <edge id="3o" from="0" to="3" priority="46" length="700.00">
        <lane id="3o_0" index="0" speed="10.00" length="700.00" width="4.00" shape="490.00,484.00 490.00,-200.00"/>
        <lane id="3o_1" index="1" speed="10.00" length="700.00" width="4.00" shape="494.00,484.00 494.00,-200.00"/>
        <lane id="3o_2" index="2" speed="10.00" length="700.00" width="4.00" shape="498.00,484.00 498.00,-200.00"/>
    </edge>
    <edge id="4i" from="4" to="0" priority="46" length="700.00">
        <lane id="4i_0" index="0" speed="10.00" length="700.00" width="4.00" shape="490.00,1200.00 490.00,516.00"/>
        <lane id="4i_1" index="1" speed="10.00" length="700.00" width="4.00" shape="494.00,1200.00 494.00,516.00"/>
        <lane id="4i_2" index="2" speed="10.00" length="700.00" width="4.00" shape="498.00,1200.00 498.00,516.00"/>
    </edge>
    <edge id="4o" from="0" to="4" priority="46" length="700.00">
        <lane id="4o_0" index="0" speed="10.00" length="700.00" width="4.00" shape="510.00,516.00 510.00,1200.00"/>
        <lane id="4o_1" index="1" speed="10.00" length="700.00" width="4.00" shape="506.00,516.00 506.00,1200.00"/>
        <lane id="4o_2" index="2" speed="10.00" length="700.00" width="4.00" shape="502.00,516.00 502.00,1200.00"/>
    </edge>

    <tlLogic id="0" type="static" programID="0" offset="0">
        <phase duration="300" state="GGGGGGGGGGGG"/>
    </tlLogic>

    <junction id="0" type="traffic_light" x="500.00" y="500.00" incLanes="4i_0 4i_1 4i_2 2i_0 2i_1 2i_2 3i_0 3i_1 3i_2 1i_0 1i_1 1i_2" intLanes=":0_0_0 :0_1_0 :0_2_0 :0_3_0 :0_4_0 :0_5_0 :0_6_0 :0_7_0 :0_8_0 :0_9_0 :0_10_0 :0_11_0" shape="488.00,516.00 512.00,516.00 512.44,513.78 513.00,513.00 513.78,512.44 514.78,512.11 516.00,512.00 516.00,488.00 513.78,487.56 513.00,487.00 512.44,486.22 512.11,485.22 512.00,484.00 488.00,484.00 487.56,486.22 487.00,487.00 486.22,487.56 485.22,487.89 484.00,488.00 484.00,512.00 486.22,512.44 487.00,513.00 487.56,513.78 487.89,514.78">
        <request index="0"  response="000000000000" foes="000000000000" cont="0"/>
        <request index="1"  response="000000000000" foes="110100010000" cont="0"/>
        <request index="2"  response="000010000000" foes="100010110000" cont="0"/>
        <request index="3"  response="000000000000" foes="000000000000" cont="0"/>
        <request index="4"  response="000010000110" foes="100010000110" cont="0"/>
        <request index="5"  response="010110000100" foes="010110000100" cont="0"/>
        <request index="6"  response="000000000000" foes="000000000000" cont="0"/>
        <request index="7"  response="000000000000" foes="010000110100" cont="0"/>
        <request index="8"  response="000000000010" foes="110000100010" cont="0"/>
        <request index="9"  response="000000000000" foes="000000000000" cont="0"/>
        <request index="10" response="000110000010" foes="000110100010" cont="0"/>
        <request index="11" response="000100010110" foes="000100010110" cont="0"/>
    </junction>
    <junction id="1" type="priority" x="-200.00" y="500.00" incLanes="1o_0 1o_1 1o_2" intLanes=":1_0_0" shape="-200.00,500.00 -200.00,512.00 -200.00,500.00">
        <request index="0" response="0" foes="0" cont="0"/>
    </junction>
    <junction id="2" type="priority" x="1200.00" y="500.00" incLanes="2o_0 2o_1 2o_2" intLanes=":2_0_0" shape="1200.00,500.00 1200.00,488.00 1200.00,500.00">
        <request index="0" response="0" foes="0" cont="0"/>
    </junction>
    <junction id="3" type="priority" x="500.00" y="-200.00" incLanes="3o_0 3o_1 3o_2" intLanes=":3_0_0" shape="500.00,-200.00 488.00,-200.00 500.00,-200.00">
        <request index="0" response="0" foes="0" cont="0"/>
    </junction>
    <junction id="4" type="priority" x="500.00" y="1200.00" incLanes="4o_0 4o_1 4o_2" intLanes=":4_0_0" shape="500.00,1200.00 512.00,1200.00 500.00,1200.00">
        <request index="0" response="0" foes="0" cont="0"/>
    </junction>

    <connection from="1i" to="3o" fromLane="0" toLane="0" via=":0_9_0" tl="0" linkIndex="9" dir="r" state="O"/>
    <connection from="1i" to="2o" fromLane="1" toLane="1" via=":0_10_0" tl="0" linkIndex="10" dir="s" state="o"/>
    <connection from="1i" to="4o" fromLane="2" toLane="2" via=":0_11_0" tl="0" linkIndex="11" dir="l" state="o"/>
    <connection from="1o" to="1i" fromLane="2" toLane="2" via=":1_0_0" dir="t" state="M"/>
    <connection from="2i" to="4o" fromLane="0" toLane="0" via=":0_3_0" tl="0" linkIndex="3" dir="r" state="O"/>
    <connection from="2i" to="1o" fromLane="1" toLane="1" via=":0_4_0" tl="0" linkIndex="4" dir="s" state="o"/>
    <connection from="2i" to="3o" fromLane="2" toLane="2" via=":0_5_0" tl="0" linkIndex="5" dir="l" state="o"/>
    <connection from="2o" to="2i" fromLane="2" toLane="2" via=":2_0_0" dir="t" state="M"/>
    <connection from="3i" to="2o" fromLane="0" toLane="0" via=":0_6_0" tl="0" linkIndex="6" dir="r" state="O"/>
    <connection from="3i" to="4o" fromLane="1" toLane="1" via=":0_7_0" tl="0" linkIndex="7" dir="s" state="O"/>
    <connection from="3i" to="1o" fromLane="2" toLane="2" via=":0_8_0" tl="0" linkIndex="8" dir="l" state="o"/>
    <connection from="3o" to="3i" fromLane="2" toLane="2" via=":3_0_0" dir="t" state="M"/>
    <connection from="4i" to="1o" fromLane="0" toLane="0" via=":0_0_0" tl="0" linkIndex="0" dir="r" state="O"/>
    <connection from="4i" to="3o" fromLane="1" toLane="1" via=":0_1_0" tl="0" linkIndex="1" dir="s" state="O"/>
    <connection from="4i" to="2o" fromLane="2" toLane="2" via=":0_2_0" tl="0" linkIndex="2" dir="l" state="o"/>
    <connection from="4o" to="4i" fromLane="2" toLane="2" via=":4_0_0" dir="t" state="M"/>

    <connection from=":0_0" to="1o" fromLane="0" toLane="0" dir="r" state="M"/>
    <connection from=":0_1" to="3o" fromLane="0" toLane="1" dir="s" state="M"/>
    <connection from=":0_2" to="2o" fromLane="0" toLane="2" dir="l" state="M"/>
    <connection from=":0_3" to="4o" fromLane="0" toLane="0" dir="r" state="M"/>
    <connection from=":0_4" to="1o" fromLane="0" toLane="1" dir="s" state="M"/>
    <connection from=":0_5" to="3o" fromLane="0" toLane="2" dir="l" state="M"/>
    <connection from=":0_6" to="2o" fromLane="0" toLane="0" dir="r" state="M"/>
    <connection from=":0_7" to="4o" fromLane="0" toLane="1" dir="s" state="M"/>
    <connection from=":0_8" to="1o" fromLane="0" toLane="2" dir="l" state="M"/>
    <connection from=":0_9" to="3o" fromLane="0" toLane="0" dir="r" state="M"/>
    <connection from=":0_10" to="2o" fromLane="0" toLane="1" dir="s" state="M"/>
    <connection from=":0_11" to="4o" fromLane="0" toLane="2" dir="l" state="M"/>
    <connection from=":1_0" to="1i" fromLane="0" toLane="2" dir="t" state="M"/>
    <connection from=":2_0" to="2i" fromLane="0" toLane="2" dir="t" state="M"/>
    <connection from=":3_0" to="3i" fromLane="0" toLane="2" dir="t" state="M"/>
    <connection from=":4_0" to="4i" fromLane="0" toLane="2" dir="t" state="M"/>

</net>
